/*--------------------------------*- C++ -*----------------------------------*\
| solids4foam: solid mechanics and fluid-solid interaction simulations        |
| Version:     v2.0                                                           |
| Web:         https://solids4foam.github.io                                  |
| Disclaimer:  This offering is not approved or endorsed by OpenCFD Limited,  |
|              producer and distributor of the OpenFOAM software via          |
|              www.openfoam.com, and owner of the OPENFOAM® and OpenCFD®      |
|              trade marks.                                                   |
\*---------------------------------------------------------------------------*/
FoamFile
{
    version     2.0;
    format      ascii;
    class       dictionary;
    location    "constant";
    object      solidProperties;
}
// * * * * * * * * * * * * * * * * * * * * * * * * * * * * * * * * * * * * * //

solidModel       vertexCentredNonLinTotalLagPressureDisplacementGeometry;    

"vertexCentredNonLinTotalLagPressureDisplacementGeometryCoeffs"
{
    finiteDifferenceJacobian no;

    // Update the stiffness matrix every outer iteration
    fullNewton yes;

    // Large strain or small strain stiffness matrix
    geometricStiffness yes;

    // Pressure smoothing coefficient
    pressureSmoothFactor 0;

    // Maximum number of Newton-Raphson iterations
    nCorrectors     1000;

    // Tolerance for Newton-Raphson loop
    solutionDTolerance 1e-10;

    solutionPTolerance 1e-6;

    // Write linear system to matlab compatible format
    writeMatlabMatrix no;

    // Scaling of fixed DOF equations
    //fixedDofScale 1;

    // Fraction of compact edge direction gradient used
    zeta 1;

    zetaImplicit 1;

    // Line search settings
    lineSearch no;
    lineSearchRTol 0.5;

    // Use PETSc, else use Eigen SparseLU
    usePETSc yes;
    optionsFile "$FOAM_CASE/petscOptions";
    debugPETSc no;
}

// ************************************************************************* //
