/*--------------------------------*- C++ -*----------------------------------*\
| =========                 |                                                 |
| \\      /  F ield         | OpenFOAM: The Open Source CFD Toolbox           |
|  \\    /   O peration     | Version:  v2012                                 |
|   \\  /    A nd           | Website:  www.openfoam.com                      |
|    \\/     M anipulation  |                                                 |
\*---------------------------------------------------------------------------*/
FoamFile
{
    version     2.0;
    format      ascii;
    class       polyBoundaryMesh;
    location    "constant/polyMesh";
    object      boundary;
}
// * * * * * * * * * * * * * * * * * * * * * * * * * * * * * * * * * * * * * //


6
(
    bottom
    {
        type            patch;
        physicalType    patch;
        nFaces          4096;
        startFace       774144;
    }

    left
    {
        type            patch;
        physicalType    patch;
        nFaces          4096;
        startFace       778240;
    }

    front
    {
        type            patch;
        physicalType    patch;
        nFaces          4096;
        startFace       782336;
    }

    right
    {
        type            patch;
        physicalType    patch;
        nFaces          4096;
        startFace       786432;
    }

    back
    {
        type            patch;
        physicalType    patch;
        nFaces          4096;
        startFace       790528;
    }

    top
    {
        type            patch;
        physicalType    patch;
        nFaces          4096;
        startFace       794624;
    }

)


// ************************************************************************* //
