/*--------------------------------*- C++ -*----------------------------------*\
| solids4foam: solid mechanics and fluid-solid interaction simulations        |
| Version:     v2.0                                                           |
| Web:         https://solids4foam.github.io                                  |
| Disclaimer:  This offering is not approved or endorsed by OpenCFD Limited,  |
|              producer and distributor of the OpenFOAM software via          |
|              www.openfoam.com, and owner of the OPENFOAM® and OpenCFD®      |
|              trade marks.                                                   |
\*---------------------------------------------------------------------------*/
FoamFile
{
    version     2.0;
    format      ascii;
    class       dictionary;
    object      controlDict;
}
// * * * * * * * * * * * * * * * * * * * * * * * * * * * * * * * * * * * * * //

DebugSwitches
{
    linearElasticMisesPlastic 0; // Do not write "Max DEpsilonPEq" each time
}

application     solids4Foam;

startFrom       startTime;

startTime       0;

stopAt          endTime;

endTime         20;

maxCo           0.5;

// Not used but needs to be smaller than endTime
deltaT          1e-6;

writeControl    runTime;

writeInterval   1;

cycleWrite      0;

writeFormat     ascii;

writePrecision  6;

writeCompression uncompressed;

timeFormat      general;

timePrecision   6;

runTimeModifiable no;

// functions
// {
//     disp
//     {
//         type          solidPointDisplacementAlongLine;
//         startPoint        (0 0.5 0);
//         endPoint        (0 1 0);
//     }
// }

// ************************************************************************* //
