/*--------------------------------*- C++ -*----------------------------------*\
| =========                 |                                                 |
| \\      /  F ield         | foam-extend: Open Source CFD                    |
|  \\    /   O peration     | Version:     3.0                                |
|   \\  /    A nd           | Web:         http://www.extend-project.de       |
|    \\/     M anipulation  |                                                 |
\*---------------------------------------------------------------------------*/
FoamFile
{
    version     2.0;
    format      ascii;
    class       dictionary;
    object      blockMeshDict;
}
// * * * * * * * * * * * * * * * * * * * * * * * * * * * * * * * * * * * * * //

convertToMeters 1;

vertices
(
    (0.5 0 0)
    (0.8 0 0)
    (2 0 0)
    (2 0.5656854249 0)
    (0.5656854249 0.5656854249 0)
    (0.353553 0.353553 0)
    (2 1 0)
    (0.5656854249 1 0)
    (0 1 0)
    (0 0.8 0)
    (0 0.5 0)

    (0.5 0 0.1)
    (0.8 0 0.1)
    (2 0 0.1)
    (2 0.5656854249 0.1)
    (0.5656854249 0.5656854249 0.1)
    (0.353553 0.353553 0.1)
    (2 1 0.1)
    (0.5656854249 1 0.1)
    (0 1 0.1)
    (0 0.8 0.1)
    (0 0.5 0.1)
);

blocks
(
    hex (5 4 9 10 16 15 20 21) aluminium (5 5 1) simpleGrading (1 1 1)
    hex (0 1 4 5 11 12 15 16) aluminium (5 5 1) simpleGrading (1 1 1)
    hex (1 2 3 4 12 13 14 15) steel (10 5 1) simpleGrading (1 1 1)
    hex (4 3 6 7 15 14 17 18) steel (10 5 1) simpleGrading (1 1 1)
    hex (9 4 7 8 20 15 18 19) steel (5 5 1) simpleGrading (1 1 1)
);

edges
(
    arc 0 5 (0.469846 0.17101 0)
    arc 5 10 (0.17101 0.469846 0)

    arc 1 4 (0.739103626 0.3061467459 0)
    arc 4 9 (0.3061467459 0.739103626 0)
    // arc 1 4 (0.939693 0.34202 0)
    // arc 4 9 (0.34202 0.939693 0)

    arc 11 16 (0.469846 0.17101 0.1)
    arc 16 21 (0.17101 0.469846 0.1)

    arc 12 15 (0.739103626 0.3061467459 0.1)
    arc 15 20 (0.3061467459 0.739103626 0.1)
    // arc 12 15 (0.939693 0.34202 0.1)
    // arc 15 20 (0.34202 0.939693 0.1)
);

patches
(
    symmetry left
    (
        (8 9 20 19)
        (9 10 21 20)
    )
    patch right
    (
        (2 3 14 13)
        (3 6 17 14)
    )
    symmetry down
    (
        (0 1 12 11)
        (1 2 13 12)
    )
    patch up
    (
        (7 8 19 18)
        (6 7 18 17)
    )
    patch hole
    (
        (10 5 16 21)
        (5 0 11 16)
    )
    empty frontAndBack
    (
        (10 9 4 5)
        (5 4 1 0)
        (1 4 3 2)
        (4 7 6 3)
        (4 9 8 7)
        (21 16 15 20)
        (16 11 12 15)
        (12 13 14 15)
        (15 14 17 18)
        (15 18 19 20)
    )
);

mergePatchPairs
(
);

// ************************************************************************* //
