/*--------------------------------*- C++ -*----------------------------------*\
| =========                 |                                                 |
| \\      /  F ield         | OpenFOAM: The Open Source CFD Toolbox           |
|  \\    /   O peration     | Version:  v2012                                 |
|   \\  /    A nd           | Website:  www.openfoam.com                      |
|    \\/     M anipulation  |                                                 |
\*---------------------------------------------------------------------------*/
FoamFile
{
    version     2.0;
    format      ascii;
    class       polyBoundaryMesh;
    location    "constant/polyMesh";
    object      boundary;
}
// * * * * * * * * * * * * * * * * * * * * * * * * * * * * * * * * * * * * * //


7
(
    back
    {
        type            empty;
        physicalType    empty;
        nFaces          444;
        startFace       637;
    }

    front
    {
        type            empty;
        physicalType    empty;
        nFaces          444;
        startFace       1081;
    }

    down
    {
        type            symmetry;
        physicalType    symmetry;
        nFaces          15;
        startFace       1525;
    }

    right
    {
        type            patch;
        physicalType    patch;
        nFaces          10;
        startFace       1540;
    }

    up
    {
        type            patch;
        physicalType    patch;
        nFaces          20;
        startFace       1550;
    }

    left
    {
        type            symmetry;
        physicalType    symmetry;
        nFaces          5;
        startFace       1570;
    }

    hole
    {
        type            patch;
        physicalType    patch;
        nFaces          8;
        startFace       1575;
    }

)


// ************************************************************************* //
